*KEYWORD
*TITLE
LS-DYNA keyword deck by LS-PRE                                                  
*CONTROL_TERMINATION
$#  endtim    endcyc     dtmin    endeng    endmas
  0.001500         0     0.000     0.000     0.000
*CONTROL_TIMESTEP
$#  dtinit    tssfac      isdo    tslimt     dt2ms      lctm     erode     ms1st
     0.000  0.300000         0     0.000     0.000         2         0         0
$#  dt2msf   dt2mslc
     0.000         0
*CONTROL_HOURGLASS
$#     ihq        qh
         1  0.100000
*DATABASE_BINARY_D3PLOT
$#      dt      lcdt      beam     npltc
 7.5000E-5         0         0         0
$#   ioopt
         0
*BOUNDARY_SPC_SET
$#    nsid       cid      dofx      dofy      dofz     dofrx     dofry     dofrz
         1         0         1         1         1         0         0         0
*SET_NODE_LIST
$#     sid       da1       da2       da3       da4
         1     0.000     0.000     0.000     0.000
$#    nid1      nid2      nid3      nid4      nid5      nid6      nid7      nid8
        62       306       245         1       123       367       184       428
       550       489       611       672       794       733       855       916
      1038       977      1099      1160      1282      1221      1343      1404
      1526      1465      1587      1648      1770      1709      1831      1892
*BOUNDARY_SPC_SET
$#    nsid       cid      dofx      dofy      dofz     dofrx     dofry     dofrz
         2         0         1         0         1         0         0         0
*SET_NODE_LIST
$#     sid       da1       da2       da3       da4
         2     0.000     0.000     0.000     0.000
$#    nid1      nid2      nid3      nid4      nid5      nid6      nid7      nid8
       183       122        61       244
*BOUNDARY_SPC_SET
$#    nsid       cid      dofx      dofy      dofz     dofrx     dofry     dofrz
         3         0         0         0         1         0         0         0
*SET_NODE_LIST
$#     sid       da1       da2       da3       da4
         3     0.000     0.000     0.000     0.000
$#    nid1      nid2      nid3      nid4      nid5      nid6      nid7      nid8
         2        63         3        64         4        65         5        66
         6        67         7        68         8        69         9        70
        10        71        11        72        12        73        13        74
        14        75        15        76        16        77        17        78
        18        79        19        80        20        81        21        82
        22        83        23        84        24        85        25        86
        26        87        27        88        28        89        29        90
        30        91        31        92        32        93        33        94
        34        95        35        96        36        97        37        98
        38        99        39       100        40       101        41       102
        42       103        43       104        44       105        45       106
        46       107        47       108        48       109        49       110
        50       111        51       112        52       113        53       114
        54       115        55       116        56       117        57       118
        58       119        59       120        60       121       124       125
       126       127       128       129       130       131       132       133
       134       135       136       137       138       139       140       141
       142       143       144       145       146       147       148       149
       150       151       152       153       154       155       156       157
       158       159       160       161       162       163       164       165
$ ... 10 like lines cut
*BOUNDARY_SPC_SET
$#    nsid       cid      dofx      dofy      dofz     dofrx     dofry     dofrz
         4         0         1         0         0         0         0         0
*SET_NODE_LIST
$#     sid       da1       da2       da3       da4
         4     0.000     0.000     0.000     0.000
$#    nid1      nid2      nid3      nid4      nid5      nid6      nid7      nid8
       305       366       427       488       549       610       671       732
       793       854       915       976      1037      1098      1159      1220
      1281      1342      1403      1464      1525      1586      1647      1708
      1769      1830      1891      1952
*LOAD_SEGMENT_SET
$#    ssid      lcid        sf        at
         1         1  1.000000
*PART
$# title
boxsolid                                                                        
$#     pid     secid       mid     eosid      hgid      grav    adpopt      tmid
         1         1         1         0         0         0         0         0
*SECTION_SOLID
$#   secid    elform       aet
         1         1         0
*MAT_PLASTIC_KINEMATIC
$#     mid        ro         e        pr      sigy      etan      beta
         1 2.5000E-4 1.0700E+7  0.333330 41200.000 61200.000     0.000
$#     src       srp        fs        vp
     0.000     0.000     0.000     0.000
*DEFINE_CURVE
$#    lcid      sidr       sfa       sfo      offa      offo    dattyp
         1         0  1.000000  1.000000
$#                a1                  o1
               0.000               0.000
      2.0000000e-007       250400.000000
      1.2000000e-006       250400.000000
      1.4000000e-006               0.000
*DEFINE_CURVE
$#    lcid      sidr       sfa       sfo      offa      offo    dattyp
         2         0  1.000000  1.000000
$#                a1                  o1
               0.000      1.0000000e-002
      1.0000000e+006      1.0000000e-002
*SET_SEGMENT
$#     sid       da1       da2       da3       da4
         1
$#      n1        n2        n3        n4        a1        a2        a3        a4
      1525      1524      1768      1769
      1524      1523      1767      1768
      1523      1522      1766      1767
      1522      1521      1765      1766
        50        49       293       294
        51        50       294       295
        52        51       295       296
        53        52       296       297
        54        53       297       298
        55        54       298       299
        56        55       299       300
        57        56       300       301
        58        57       301       302
        59        58       302       303
        60        59       303       304
        61        60       304       305
       294       293       537       538
       295       294       538       539
       296       295       539       540
       297       296       540       541
$ ... 64 like lines cut
*ELEMENT_SOLID
$#   eid     pid      n1      n2      n3      n4      n5      n6      n7      n8
       1       1       1      62      63       2     245     306     307     246
       2       1       2      63      64       3     246     307     308     247
       3       1       3      64      65       4     247     308     309     248
       4       1       4      65      66       5     248     309     310     249
       5       1       5      66      67       6     249     310     311     250
       6       1       6      67      68       7     250     311     312     251
       7       1       7      68      69       8     251     312     313     252
       8       1       8      69      70       9     252     313     314     253
       9       1       9      70      71      10     253     314     315     254
      10       1      10      71      72      11     254     315     316     255
      11       1      11      72      73      12     255     316     317     256
      12       1      12      73      74      13     256     317     318     257
      13       1      13      74      75      14     257     318     319     258
      14       1      14      75      76      15     258     319     320     259
      15       1      15      76      77      16     259     320     321     260
      16       1      16      77      78      17     260     321     322     261
      17       1      17      78      79      18     261     322     323     262
      18       1      18      79      80      19     262     323     324     263
      19       1      19      80      81      20     263     324     325     264
      20       1      20      81      82      21     264     325     326     265
$ ... 1240 like lines cut
    $
*NODE
$#   nid               x               y               z      tc      rc
       1           0.000           0.000           0.000       0       0
       2      0.08333334           0.000           0.000       0       0
       3      0.16666667           0.000           0.000       0       0
       4      0.25000000           0.000           0.000       0       0
       5      0.33333334           0.000           0.000       0       0
       6      0.41666669           0.000           0.000       0       0
       7      0.50000000           0.000           0.000       0       0
       8      0.58333337           0.000           0.000       0       0
       9      0.66666669           0.000           0.000       0       0
      10      0.75000000           0.000           0.000       0       0
      11      0.83333337           0.000           0.000       0       0
      12      0.91666669           0.000           0.000       0       0
      13      1.00000000           0.000           0.000       0       0
      14      1.08333337           0.000           0.000       0       0
      15      1.16666675           0.000           0.000       0       0
      16      1.25000000           0.000           0.000       0       0
      17      1.33333337           0.000           0.000       0       0
      18      1.41666675           0.000           0.000       0       0
      19      1.50000000           0.000           0.000       0       0
      20      1.58333337           0.000           0.000       0       0
$ ... 1932 like lines cut
    $
*END
