*KEYWORD
*TITLE
                                                                                
$
*DATABASE_FORMAT
         2
$
$
$$$$$$$$$$$$$$$$$$$$$$$$$$$$$$$$$$$$$$$$$$$$$$$$$$$$$$$$$$$$$$$$$$$$$$$$$$$$$$$$
$                               NODE DEFINITIONS                               $
$$$$$$$$$$$$$$$$$$$$$$$$$$$$$$$$$$$$$$$$$$$$$$$$$$$$$$$$$$$$$$$$$$$$$$$$$$$$$$$$
$
*NODE
       1 0.000000000E+00 0.000000000E+00-1.000000000E-01       0       0
       2-1.000000000E-01 1.224606354E-17 0.000000000E+00       0       0
       3-1.564344650E-02 0.000000000E+00-9.876883406E-02       0       0
       4-3.090169943E-02 0.000000000E+00-9.510565163E-02       0       0
       5-4.539904997E-02 0.000000000E+00-8.910065242E-02       0       0
       6-5.877852522E-02 0.000000000E+00-8.090169945E-02       0       0
       7-7.071067811E-02 0.000000000E+00-7.071067813E-02       0       0
       8-8.090169944E-02 0.000000000E+00-5.877852523E-02       0       0
       9-8.910065242E-02 1.091132251E-17-4.539904997E-02       0       0
      10-9.510565163E-02 1.164669853E-17-3.090169943E-02       0       0
      11-9.876883406E-02 1.209529418E-17-1.564344650E-02       0       0
      12 0.000000000E+00 6.123031769E-18 0.000000000E+00       0       0
      13-1.000000000E-02 0.000000000E+00 0.000000000E+00       0       0
      14-2.000000000E-02 0.000000000E+00 0.000000000E+00       0       0
      15-3.000000000E-02 0.000000000E+00 0.000000000E+00       0       0
      16-4.000000000E-02 0.000000000E+00 0.000000000E+00       0       0
      17-5.000000000E-02 0.000000000E+00 0.000000000E+00       0       0
      18-6.000000000E-02 0.000000000E+00 0.000000000E+00       0       0
      19-7.000000000E-02 1.040915401E-17 0.000000000E+00       0       0
      20-8.000000000E-02 1.102145718E-17 0.000000000E+00       0       0
$ ... 1239 like lines cut
$
$
$$$$$$$$$$$$$$$$$$$$$$$$$$$$$$$$$$$$$$$$$$$$$$$$$$$$$$$$$$$$$$$$$$$$$$$$$$$$$$$$
$                             SECTION DEFINITIONS                              $
$$$$$$$$$$$$$$$$$$$$$$$$$$$$$$$$$$$$$$$$$$$$$$$$$$$$$$$$$$$$$$$$$$$$$$$$$$$$$$$$
$
*SECTION_SOLID
         1         1
*SECTION_SOLID
         2         1
$
$
$$$$$$$$$$$$$$$$$$$$$$$$$$$$$$$$$$$$$$$$$$$$$$$$$$$$$$$$$$$$$$$$$$$$$$$$$$$$$$$$
$                             MATERIAL DEFINITIONS                             $
$$$$$$$$$$$$$$$$$$$$$$$$$$$$$$$$$$$$$$$$$$$$$$$$$$$$$$$$$$$$$$$$$$$$$$$$$$$$$$$$
$
*MAT_ELASTIC
         1 0.780E+04 0.200E+12  0.300000       0.0       0.0       0.0
*MAT_ELASTIC
         2 0.780E+04 0.200E+12  0.300000       0.0       0.0       0.0
$
$
$
$$$$$$$$$$$$$$$$$$$$$$$$$$$$$$$$$$$$$$$$$$$$$$$$$$$$$$$$$$$$$$$$$$$$$$$$$$$$$$$$
$                              PARTS DEFINITIONS                               $
$$$$$$$$$$$$$$$$$$$$$$$$$$$$$$$$$$$$$$$$$$$$$$$$$$$$$$$$$$$$$$$$$$$$$$$$$$$$$$$$
$
$
*PART
Part          1 for Mat         1 and Elem Type         1
         1         1         1         0         0         0         0
$
*PART
Part          2 for Mat         2 and Elem Type         2
         2         2         2         0         0         0         0
$
$
$$$$$$$$$$$$$$$$$$$$$$$$$$$$$$$$$$$$$$$$$$$$$$$$$$$$$$$$$$$$$$$$$$$$$$$$$$$$$$$$
$                             ELEMENT DEFINITIONS                              $
$$$$$$$$$$$$$$$$$$$$$$$$$$$$$$$$$$$$$$$$$$$$$$$$$$$$$$$$$$$$$$$$$$$$$$$$$$$$$$$$
$
*ELEMENT_SOLID
       1       1     106     120     139     105     251     368     416     287
       2       1     120     121     138     139     368     372     432     416
       3       1     121     122     137     138     372     376     448     432
       4       1     122     123     136     137     376     380     464     448
       5       1     123     111     115     136     380     304     320     464
       6       1     105     139     135     104     287     416     420     288
       7       1     139     138     134     135     416     432     436     420
       8       1     138     137     133     134     432     448     452     436
       9       1     137     136     132     133     448     464     468     452
      10       1     136     115     114     132     464     320     324     468
      11       1     104     135     131     103     288     420     424     289
      12       1     135     134     130     131     420     436     440     424
      13       1     134     133     129     130     436     452     456     440
      14       1     133     132     128     129     452     468     472     456
      15       1     132     114     113     128     468     324     328     472
      16       1     103     131     127     102     289     424     428     290
      17       1     131     130     126     127     424     440     444     428
      18       1     130     129     125     126     440     456     460     444
      19       1     129     128     124     125     456     472     476     460
      20       1     128     113     112     124     472     328     332     476
$ ... 981 like lines cut
$
$
$$$$$$$$$$$$$$$$$$$$$$$$$$$$$$$$$$$$$$$$$$$$$$$$$$$$$$$$$$$$$$$$$$$$$$$$$$$$$$$$
$                              COORDINATE SYSTEMS                              $
$$$$$$$$$$$$$$$$$$$$$$$$$$$$$$$$$$$$$$$$$$$$$$$$$$$$$$$$$$$$$$$$$$$$$$$$$$$$$$$$
$
$
$
$$$$$$$$$$$$$$$$$$$$$$$$$$$$$$$$$$$$$$$$$$$$$$$$$$$$$$$$$$$$$$$$$$$$$$$$$$$$$$$$
$                               LOAD DEFINITIONS                               $
$$$$$$$$$$$$$$$$$$$$$$$$$$$$$$$$$$$$$$$$$$$$$$$$$$$$$$$$$$$$$$$$$$$$$$$$$$$$$$$$
$
$
$
$$$$$$$$$$$$$$$$$$$$$$$$$$$$$$$$$$$$$$$$$$$$$$$$$$$$$$$$$$$$$$$$$$$$$$$$$$$$$$$$
$                                RIGID BOUNDRIES                               $
$$$$$$$$$$$$$$$$$$$$$$$$$$$$$$$$$$$$$$$$$$$$$$$$$$$$$$$$$$$$$$$$$$$$$$$$$$$$$$$$
$
$
$
$$$$$$$$$$$$$$$$$$$$$$$$$$$$$$$$$$$$$$$$$$$$$$$$$$$$$$$$$$$$$$$$$$$$$$$$$$$$$$$$
$                             BOUNDARY DEFINITIONS                             $
$$$$$$$$$$$$$$$$$$$$$$$$$$$$$$$$$$$$$$$$$$$$$$$$$$$$$$$$$$$$$$$$$$$$$$$$$$$$$$$$
$
*SET_NODE_LIST
         1     0.000     0.000     0.000     0.000
         1        22        23        24        25        26        27        28
        29        30       102       103       104       105       106       107
       108       109       110       111       112       113       114       115
       116       117       118       119       120       121       122       123
       124       125       126       127       128       129       130       131
       132       133       134       135       136       137       138       139
       140       141       142       143       144       145       146       147
       148       149       150       151       152       153       154       155
       156       157       158       159       160       161       162       163
       164       165       166       167       168       169       170       171
       690       691       692       693       694       695       696       697
       698       699       700       701       702       703       704       705
       706       707       708       709       710       711       712       713
       714       715       716       717       718       719       720       721
       722       723       724       725       726       727       728       729
       730       731       732       733       734       735       736       737
       738       739       740       741       742       743       744       745
       746       747       748       749       750       751       752       753
       754       755       756       757       758       759
*BOUNDARY_SPC_SET
         1         0         1         0         0         0         0         0
*SET_NODE_LIST
         2     0.000     0.000     0.000     0.000
         2        13        14        15        16        17        18        19
        20        21       172       173       174       175       176       177
       178       179       180       181       182       183       184       185
       186       187       188       189       190       191       192       193
       194       195       196       197       198       199       200       201
       202       203       204       205       206       207       208       209
       210       211       212       213       214       215       216       217
       218       219       220       221       222       223       224       225
       226       227       228       229       230       231       232       233
       234       235       236       237       238       239       240       241
       760       761       762       763       764       765       766       767
       768       769       770       771       772       773       774       775
       776       777       778       779       780       781       782       783
       784       785       786       787       788       789       790       791
       792       793       794       795       796       797       798       799
       800       801       802       803       804       805       806       807
       808       809       810       811       812       813       814       815
       816       817       818       819       820       821       822       823
       824       825       826       827       828       829
*BOUNDARY_SPC_SET
         2         0         0         0         1         0         0         0
*SET_NODE_LIST
         3     0.000     0.000     0.000     0.000
        12        92        93        94        95        96        97        98
        99       100       101       680       681       682       683       684
       685       686       687       688       689
*BOUNDARY_SPC_SET
         3         0         1         0         1         0         0         0
*SET_NODE_LIST
         4     0.000     0.000     0.000     0.000
       672       673       674       675       676       677       678       679
*BOUNDARY_SPC_SET
         4         0         1         1         1         0         0         0
$
$
$$$$$$$$$$$$$$$$$$$$$$$$$$$$$$$$$$$$$$$$$$$$$$$$$$$$$$$$$$$$$$$$$$$$$$$$$$$$$$$$
$                              CONTACT DEFINITIONS                             $
$$$$$$$$$$$$$$$$$$$$$$$$$$$$$$$$$$$$$$$$$$$$$$$$$$$$$$$$$$$$$$$$$$$$$$$$$$$$$$$$
$
*SET_SEGMENT
         1     0.000     0.000     0.000     0.000
       120       106       105       139     0.000     0.000     0.000     0.000
       105       106       251       287     0.000     0.000     0.000     0.000
       121       120       139       138     0.000     0.000     0.000     0.000
       122       121       138       137     0.000     0.000     0.000     0.000
       123       122       137       136     0.000     0.000     0.000     0.000
       111       123       136       115     0.000     0.000     0.000     0.000
       139       105       104       135     0.000     0.000     0.000     0.000
       104       105       287       288     0.000     0.000     0.000     0.000
       138       139       135       134     0.000     0.000     0.000     0.000
       137       138       134       133     0.000     0.000     0.000     0.000
       136       137       133       132     0.000     0.000     0.000     0.000
       115       136       132       114     0.000     0.000     0.000     0.000
       135       104       103       131     0.000     0.000     0.000     0.000
       103       104       288       289     0.000     0.000     0.000     0.000
       134       135       131       130     0.000     0.000     0.000     0.000
       133       134       130       129     0.000     0.000     0.000     0.000
       132       133       129       128     0.000     0.000     0.000     0.000
       114       132       128       113     0.000     0.000     0.000     0.000
       131       103       102       127     0.000     0.000     0.000     0.000
$ ... 431 like lines cut
*SET_SEGMENT
         2     0.000     0.000     0.000     0.000
       675       672       673       674     0.000     0.000     0.000     0.000
       672       675       679       676     0.000     0.000     0.000     0.000
       675       674       678       679     0.000     0.000     0.000     0.000
       674       673       677       678     0.000     0.000     0.000     0.000
       673       672       676       677     0.000     0.000     0.000     0.000
       676       679       678       677     0.000     0.000     0.000     0.000
*CONTACT_SURFACE_TO_SURFACE
         1         2         0         0         0         0         0         0
 0.000     0.000     0.000     0.000     0.000             0 0.000    0.1000E+08
 1.000     1.000     0.000     0.000     1.000     1.000     1.000     1.000    
$
$$$$$$$$$$$$$$$$$$$$$$$$$$$$$$$$$$$$$$$$$$$$$$$$$$$$$$$$$$$$$$$$$$$$$$$$$$$$$$$$
$                              CONTROL OPTIONS                                 $
$$$$$$$$$$$$$$$$$$$$$$$$$$$$$$$$$$$$$$$$$$$$$$$$$$$$$$$$$$$$$$$$$$$$$$$$$$$$$$$$
$
*CONTROL_ENERGY
         2         2         2         2
*CONTROL_SHELL
  20.0             1        -1         1         2         2         1
*CONTROL_TIMESTEP
    0.0000    0.9000         0  0.00      0.00    
*CONTROL_TERMINATION
  5.00             0   0.00000   0.00000   0.00000
$
$$$$$$$$$$$$$$$$$$$$$$$$$$$$$$$$$$$$$$$$$$$$$$$$$$$$$$$$$$$$$$$$$$$$$$$$$$$$$$$$
$                                 TIME HISTORY                                 $
$$$$$$$$$$$$$$$$$$$$$$$$$$$$$$$$$$$$$$$$$$$$$$$$$$$$$$$$$$$$$$$$$$$$$$$$$$$$$$$$
$
*DATABASE_BINARY_D3PLOT
0.5000E-01
*DATABASE_BINARY_D3THDT
0.5000E-02
$
$$$$$$$$$$$$$$$$$$$$$$$$$$$$$$$$$$$$$$$$$$$$$$$$$$$$$$$$$$$$$$$$$$$$$$$$$$$$$$$$
$                              DATABASE OPTIONS                                $
$$$$$$$$$$$$$$$$$$$$$$$$$$$$$$$$$$$$$$$$$$$$$$$$$$$$$$$$$$$$$$$$$$$$$$$$$$$$$$$$
$
*DATABASE_EXTENT_BINARY
         0         0         3         1         0         0         0         0
         0         0         4         0         0         0
$
$$$$$$$$$$$$$$$$$$$$$$$$$$$$$$$$$$$$$$$$$$$$$$$$$$$$$$$$$$$$$$$$$$$$$$$$$$$$$$$$
$                         INITIAL VELOCITY DEFINITIONS                         $
$$$$$$$$$$$$$$$$$$$$$$$$$$$$$$$$$$$$$$$$$$$$$$$$$$$$$$$$$$$$$$$$$$$$$$$$$$$$$$$$
$
*SET_NODE_LIST
         5     0.000     0.000     0.000     0.000
         1         2         3         4         5         6         7         8
         9        10        11        12        13        14        15        16
        17        18        19        20        21        22        23        24
        25        26        27        28        29        30        31        32
        33        34        35        36        37        38        39        40
        41        42        43        44        45        46        47        48
        49        50        51        52        53        54        55        56
        57        58        59        60        61        62        63        64
        65        66        67        68        69        70        71        72
        73        74        75        76        77        78        79        80
        81        82        83        84        85        86        87        88
        89        90        91        92        93        94        95        96
        97        98        99       100       101       102       103       104
       105       106       107       108       109       110       111       112
       113       114       115       116       117       118       119       120
       121       122       123       124       125       126       127       128
       129       130       131       132       133       134       135       136
       137       138       139       140       141       142       143       144
       145       146       147       148       149       150       151       152
$ ... 138 like lines cut
*INITIAL_VELOCITY
         5         0         0
 0.000    -10.00     0.000     0.000     0.000     0.000    
*END
